OPT_V10/Two_days_MCY3_MIQCPM1/powerflow_results_t5.txt
Pandapower Network Debug Info
==================================================

BUS:
       vm_pu  va_degree      p_mw    q_mvar
0   0.992992   0.106361  0.001177  0.000828
1   0.988620   0.180545  0.001568  0.001796
2   0.984653   0.264397  0.001921  0.003073
3   0.989248   0.179240  0.002542  0.003853
4   0.999892   0.000288  0.009646  0.008226
5   0.999880   0.000275  0.010977  0.008282
6   0.999870   0.000265  0.012080  0.009054
7   0.999933   0.000285  0.000000  0.000000
8   0.999933   0.000291  0.000000  0.000000
9   1.000000   0.000000 -0.040052 -0.040207
10  1.000000   0.000005  0.000000  0.000000
--------------------------------------------------

LINE:
   p_from_mw  q_from_mvar   p_to_mw  q_to_mvar         pl_mw       ql_mvar  i_from_ka   i_to_ka      i_ka  vm_from_pu  va_from_degree  vm_to_pu  va_to_degree  loading_percent
0   0.040042     0.036207 -0.040039  -0.036205  2.850613e-06  2.222670e-06   0.002078  0.002078  0.002078    1.000000        0.000005  0.999933      0.000285         0.903421
1   0.032705     0.025564 -0.032704  -0.025563  1.332643e-06  1.039084e-06   0.001598  0.001598  0.001598    0.999933        0.000285  0.999892      0.000288         0.694717
2   0.007324     0.009641 -0.007256  -0.009588  6.857663e-05  5.347033e-05   0.017477  0.017477  0.017477    0.999933        0.000291  0.992992      0.106361         7.598824
3  -0.023057    -0.017336  0.023058   0.017337  2.878597e-07  2.244490e-07   0.001110  0.001110  0.001110    0.999880        0.000275  0.999892      0.000288         0.482819
4  -0.012080    -0.009054  0.012080   0.009054  1.114888e-07  8.692969e-08   0.000581  0.000581  0.000581    0.999870        0.000265  0.999880      0.000275         0.252669
5  -0.003501    -0.004878  0.003523   0.004895  2.182512e-05  1.701740e-05   0.008767  0.008767  0.008767    0.988620        0.180545  0.992992      0.106361         3.811594
6  -0.002542    -0.003853  0.002556   0.003865  1.453795e-05  1.133548e-05   0.006735  0.006735  0.006735    0.989248        0.179240  0.992992      0.106361         2.928313
7  -0.001921    -0.003073  0.001933   0.003082  1.225407e-05  9.554703e-06   0.005312  0.005312  0.005312    0.984653        0.264397  0.988620      0.180545         2.309750
--------------------------------------------------

TRAFO:
    p_hv_mw  q_hv_mvar   p_lv_mw  q_lv_mvar    pl_mw  ql_mvar   i_hv_ka   i_lv_ka  vm_hv_pu  va_hv_degree  vm_lv_pu  va_lv_degree  loading_percent
0  0.007334   0.010641 -0.007324  -0.009641  0.00001    0.001  0.000497  0.017477  0.999933      0.000285  0.999933      0.000291         0.129246
1  0.040052   0.040207 -0.040042  -0.036207  0.00001    0.004  0.000468  0.002078  1.000000      0.000000  1.000000      0.000005         0.141880
--------------------------------------------------
